data_raw
_audit_creation_date              2017-04-18
_audit_creation_method            'Materials Studio'
_symmetry_space_group_name_H-M    'P1'
_symmetry_Int_Tables_number       1
_symmetry_cell_setting            triclinic
loop_
_symmetry_equiv_pos_as_xyz
  x,y,z
_cell_length_a                    20.0000
_cell_length_b                    20.0000
_cell_length_c                    20.0000
_cell_angle_alpha                 90.0000
_cell_angle_beta                  90.0000
_cell_angle_gamma                 90.0000
loop_
_atom_site_label
_atom_site_type_symbol
_atom_site_fract_x
_atom_site_fract_y
_atom_site_fract_z
_atom_site_U_iso_or_equiv
_atom_site_adp_type
_atom_site_occupancy
C3     C     0.14925   0.17893   0.11085   0.01267  Uiso   1.00
C4     C     0.09425   0.14407   0.09615   0.01267  Uiso   1.00
H3     H     0.16865   0.21810   0.07806   0.01267  Uiso   1.00
H4     H     0.07485   0.10490   0.12894   0.01267  Uiso   1.00
H7     H     0.17763   0.16990   0.15661   0.01267  Uiso   1.00
H8     H     0.06587   0.15310   0.05039   0.01267  Uiso   1.00
loop_
_geom_bond_atom_site_label_1
_geom_bond_atom_site_label_2
_geom_bond_distance
_geom_bond_site_symmetry_2
_ccdc_geom_bond_type
C3     C4      1.335   .     D
C3     H3      1.093   .     S
C3     H7      1.092   .     S
C4     H4      1.093   .     S
C4     H8      1.092   .     S
