data_methane-0
_audit_creation_date              2017-05-09
_audit_creation_method            'Materials Studio'
_symmetry_space_group_name_H-M    'P1'
_symmetry_Int_Tables_number       1
_symmetry_cell_setting            triclinic
loop_
_symmetry_equiv_pos_as_xyz
  x,y,z
_cell_length_a                    6.3500
_cell_length_b                    6.3500
_cell_length_c                    6.3500
_cell_angle_alpha                 90.0000
_cell_angle_beta                  90.0000
_cell_angle_gamma                 90.0000
loop_
_atom_site_label
_atom_site_type_symbol
_atom_site_fract_x
_atom_site_fract_y
_atom_site_fract_z
_atom_site_U_iso_or_equiv
_atom_site_adp_type
_atom_site_occupancy
H1     H     0.60030   0.52968   0.15026   0.01267  Uiso   1.00
C2     C     0.51703   0.50433   0.00287   0.01267  Uiso   1.00
H3     H     0.54932   0.63409  -0.10399   0.01267  Uiso   1.00
H4     H     0.56970   0.35765  -0.06793   0.01267  Uiso   1.00
H5     H     0.34876   0.49587   0.03313   0.01267  Uiso   1.00
H6     H     1.07562   0.53223   0.66031   0.01267  Uiso   1.00
C7     C     0.99234   0.50688   0.51292   0.01267  Uiso   1.00
H8     H     1.02464   0.63664   0.40605   0.01267  Uiso   1.00
H9     H     1.04502   0.36020   0.44212   0.01267  Uiso   1.00
H10    H     0.82407   0.49842   0.54317   0.01267  Uiso   1.00
H11    H     0.57178   1.02575   0.62698   0.01267  Uiso   1.00
C12    C     0.48850   1.00040   0.47959   0.01267  Uiso   1.00
H13    H     0.52080   1.13016   0.37273   0.01267  Uiso   1.00
H14    H     0.54118   0.85372   0.40879   0.01267  Uiso   1.00
H15    H     0.32024   0.99194   0.50984   0.01267  Uiso   1.00
H16    H     1.08074   0.02401   0.14580   0.01267  Uiso   1.00
C17    C     0.99747  -0.00135  -0.00158   0.01267  Uiso   1.00
H18    H     1.02977   0.12842  -0.10845   0.01267  Uiso   1.00
H19    H     1.05014  -0.14802  -0.07239   0.01267  Uiso   1.00
H20    H     0.82920  -0.00980   0.02867   0.01267  Uiso   1.00
loop_
_geom_bond_atom_site_label_1
_geom_bond_atom_site_label_2
_geom_bond_distance
_geom_bond_site_symmetry_2
_ccdc_geom_bond_type
H1     C2      1.087   .     S
C2     H3      1.087   .     S
C2     H4      1.087   .     S
C2     H5      1.087   .     S
H6     C7      1.087   .     S
C7     H8      1.087   .     S
C7     H9      1.087   .     S
C7     H10     1.087   .     S
H11    C12     1.087   .     S
C12    H13     1.087   .     S
C12    H14     1.087   .     S
C12    H15     1.087   .     S
H16    C17     1.087   .     S
C17    H18     1.087   .     S
C17    H19     1.087   .     S
C17    H20     1.087   .     S
