data_methane-high
_audit_creation_date              2017-05-25
_audit_creation_method            'Materials Studio'
_symmetry_space_group_name_H-M    'CMCA'
_symmetry_Int_Tables_number       64
_symmetry_cell_setting            orthorhombic
loop_
_symmetry_equiv_pos_as_xyz
  x,y,z
  -x,-y+1/2,z+1/2
  -x,y+1/2,-z+1/2
  x,-y,-z
  -x,-y,-z
  x,y+1/2,-z+1/2
  x,-y+1/2,z+1/2
  -x,y,z
  x+1/2,y+1/2,z
  -x+1/2,-y,z+1/2
  -x+1/2,y,-z+1/2
  x+1/2,-y+1/2,-z
  -x+1/2,-y+1/2,-z
  x+1/2,y,-z+1/2
  x+1/2,-y,z+1/2
  -x+1/2,y+1/2,z
_cell_length_a                    11.7079
_cell_length_b                    8.1893
_cell_length_c                    8.1842
_cell_angle_alpha                 90.0000
_cell_angle_beta                  90.0000
_cell_angle_gamma                 90.0000
loop_
_atom_site_label
_atom_site_type_symbol
_atom_site_fract_x
_atom_site_fract_y
_atom_site_fract_z
_atom_site_U_iso_or_equiv
_atom_site_adp_type
_atom_site_occupancy
H1     H     0.80100   0.57950   0.93360   0.00000  Uiso   1.00
H2     H     0.69860   0.56630   1.07960   0.00000  Uiso   1.00
H3     H     0.07280   0.78550   0.18230   0.00000  Uiso   1.00
C4     C    -0.00000   0.72960   0.23030   0.00000  Uiso   1.00
H5     H    -0.00000   0.60590   0.19920   0.00000  Uiso   1.00
C6     C     0.74980   0.50000   1.00000   0.00000  Uiso   1.00
loop_
_geom_bond_atom_site_label_1
_geom_bond_atom_site_label_2
_geom_bond_distance
_geom_bond_site_symmetry_2
_ccdc_geom_bond_type
H1     C6      1.039   .     S
H2     C6      1.039   .     S
H3     C4      1.044   .     S
C4     H5      1.045   .     S
C4     H3      1.044   8     S
C6     H1      1.039   4_567 S
C6     H2      1.039   4_567 S
