data_3D\Atomistic
_audit_creation_date              2017-05-07
_audit_creation_method            'Materials Studio'
_symmetry_space_group_name_H-M    'P1'
_symmetry_Int_Tables_number       1
_symmetry_cell_setting            triclinic
loop_
_symmetry_equiv_pos_as_xyz
  x,y,z
_cell_length_a                    6.3500
_cell_length_b                    6.3500
_cell_length_c                    6.3500
_cell_angle_alpha                 90.0000
_cell_angle_beta                  90.0000
_cell_angle_gamma                 90.0000
loop_
_atom_site_label
_atom_site_type_symbol
_atom_site_fract_x
_atom_site_fract_y
_atom_site_fract_z
_atom_site_U_iso_or_equiv
_atom_site_adp_type
_atom_site_occupancy
H1     H     0.39907  -0.16516   0.47826   0.01267  Uiso   1.00
C2     C     0.45891  -0.00166   0.43445   0.01267  Uiso   1.00
H3     H     0.39907   0.04214   0.27096   0.01267  Uiso   1.00
H4     H     0.39907   0.11802   0.55414   0.01267  Uiso   1.00
H5     H     0.63844  -0.00166   0.43445   0.01267  Uiso   1.00
H6     H     0.60030   0.52968   0.15026   0.01267  Uiso   1.00
C7     C     0.51703   0.50433   0.00287   0.01267  Uiso   1.00
H8     H     0.54932   0.63409  -0.10399   0.01267  Uiso   1.00
H9     H     0.56970   0.35765  -0.06793   0.01267  Uiso   1.00
H10    H     0.34876   0.49587   0.03313   0.01267  Uiso   1.00
H11    H     0.55990   0.49928   0.58610   0.01267  Uiso   1.00
C12    C     0.47662   0.47393   0.43872   0.01267  Uiso   1.00
H13    H     0.50892   0.60369   0.33185   0.01267  Uiso   1.00
H14    H     0.52930   0.32725   0.36791   0.01267  Uiso   1.00
H15    H     0.30835   0.46547   0.46897   0.01267  Uiso   1.00
H16    H     1.13805   0.55499   0.58255   0.01267  Uiso   1.00
C17    C     1.05478   0.52964   0.43517   0.01267  Uiso   1.00
H18    H     1.08708   0.65940   0.32830   0.01267  Uiso   1.00
H19    H     1.10745   0.38296   0.36436   0.01267  Uiso   1.00
H20    H     0.88651   0.52118   0.46542   0.01267  Uiso   1.00
loop_
_geom_bond_atom_site_label_1
_geom_bond_atom_site_label_2
_geom_bond_distance
_geom_bond_site_symmetry_2
_ccdc_geom_bond_type
H1     C2      1.140   .     S
C2     H3      1.140   .     S
C2     H4      1.140   .     S
C2     H5      1.140   .     S
H6     C7      1.087   .     S
C7     H8      1.087   .     S
C7     H9      1.087   .     S
C7     H10     1.087   .     S
H11    C12     1.087   .     S
C12    H13     1.087   .     S
C12    H14     1.087   .     S
C12    H15     1.087   .     S
H16    C17     1.087   .     S
C17    H18     1.087   .     S
C17    H19     1.087   .     S
C17    H20     1.087   .     S
