data_ref04
_audit_creation_date              2017-07-02
_audit_creation_method            'Materials Studio'
_symmetry_space_group_name_H-M    'P1'
_symmetry_Int_Tables_number       1
_symmetry_cell_setting            triclinic
loop_
_symmetry_equiv_pos_as_xyz
  x,y,z
_cell_length_a                    7.2049
_cell_length_b                    9.1797
_cell_length_c                    6.5632
_cell_angle_alpha                 90.0000
_cell_angle_beta                  90.0000
_cell_angle_gamma                 90.0000
loop_
_atom_site_label
_atom_site_type_symbol
_atom_site_fract_x
_atom_site_fract_y
_atom_site_fract_z
_atom_site_U_iso_or_equiv
_atom_site_adp_type
_atom_site_occupancy
C3     C     0.55679   0.85442   0.50309   0.01267  Uiso   1.00
C4     C     0.44321   0.14558   0.49691   0.01267  Uiso   1.00
C11    C     0.41977   0.90286   0.63758   0.01267  Uiso   1.00
C12    C     0.58023   0.09714   0.36242   0.01267  Uiso   1.00
C19    C     0.63740   0.95173   0.36537   0.01267  Uiso   1.00
C20    C     0.36260   0.04827   0.63463   0.01267  Uiso   1.00
H3     H     0.60043   0.74071   0.50561   0.01267  Uiso   1.00
H4     H     0.39957   0.25929   0.49439   0.01267  Uiso   1.00
H11    H     0.35779   0.82768   0.74629   0.01267  Uiso   1.00
H12    H     0.64221   0.17232   0.25371   0.01267  Uiso   1.00
H19    H     0.74535   0.91562   0.26055   0.01267  Uiso   1.00
H20    H     0.25465   0.08438   0.73945   0.01267  Uiso   1.00
loop_
_geom_bond_atom_site_label_1
_geom_bond_atom_site_label_2
_geom_bond_distance
_geom_bond_site_symmetry_2
_ccdc_geom_bond_type
C3     C11     1.397   .     S
C3     C19     1.397   .     D
C3     H3      1.090   .     S
C4     C12     1.397   .     D
C4     C20     1.397   .     S
C4     H4      1.090   .     S
C11    C20     1.397   1_565 D
C11    H11     1.089   .     S
C12    C19     1.397   1_545 S
C12    H12     1.089   .     S
C19    C12     1.397   1_565 S
C19    H19     1.090   .     S
C20    C11     1.397   1_545 D
C20    H20     1.090   .     S
