data_benzene
_audit_creation_date              2017-04-18
_audit_creation_method            'Materials Studio'
_symmetry_space_group_name_H-M    'P1'
_symmetry_Int_Tables_number       1
_symmetry_cell_setting            triclinic
loop_
_symmetry_equiv_pos_as_xyz
  x,y,z
_cell_length_a                    20.0000
_cell_length_b                    20.0000
_cell_length_c                    20.0000
_cell_angle_alpha                 90.0000
_cell_angle_beta                  90.0000
_cell_angle_gamma                 90.0000
loop_
_atom_site_label
_atom_site_type_symbol
_atom_site_fract_x
_atom_site_fract_y
_atom_site_fract_z
_atom_site_U_iso_or_equiv
_atom_site_adp_type
_atom_site_occupancy
C1     C     0.20420   0.30116   0.16664   0.01267  Uiso   1.00
C2     C     0.16355   0.16739   0.16836   0.01267  Uiso   1.00
C3     C     0.15498   0.27889   0.12229   0.01267  Uiso   1.00
C4     C     0.21277   0.18966   0.21271   0.01267  Uiso   1.00
C5     C     0.23325   0.25647   0.21188   0.01267  Uiso   1.00
C6     C     0.13450   0.21208   0.12312   0.01267  Uiso   1.00
H1     H     0.21991   0.35337   0.16588   0.01267  Uiso   1.00
H2     H     0.14784   0.11518   0.16912   0.01267  Uiso   1.00
H3     H     0.13258   0.31348   0.08669   0.01267  Uiso   1.00
H4     H     0.23517   0.15507   0.24831   0.01267  Uiso   1.00
H5     H     0.27192   0.27319   0.24651   0.01267  Uiso   1.00
H6     H     0.09583   0.19536   0.08849   0.01267  Uiso   1.00
loop_
_geom_bond_atom_site_label_1
_geom_bond_atom_site_label_2
_geom_bond_distance
_geom_bond_site_symmetry_2
_ccdc_geom_bond_type
C1     C3      1.398   .     S
C1     C5      1.398   .     D
C1     H1      1.091   .     S
C2     C4      1.398   .     D
C2     C6      1.398   .     S
C2     H2      1.091   .     S
C3     C6      1.398   .     D
C3     H3      1.089   .     S
C4     C5      1.398   .     S
C4     H4      1.089   .     S
C5     H5      1.091   .     S
C6     H6      1.091   .     S
