data_saber
_audit_creation_date              2016-09-21
_audit_creation_method            'Materials Studio'
_symmetry_space_group_name_H-M    'P1'
_symmetry_Int_Tables_number       1
_symmetry_cell_setting            triclinic
loop_
_symmetry_equiv_pos_as_xyz
  x,y,z
_cell_length_a                    2.4664
_cell_length_b                    2.4664
_cell_length_c                    6.6318
_cell_angle_alpha                 90.0000
_cell_angle_beta                  90.0000
_cell_angle_gamma                 120.0446
loop_
_atom_site_label
_atom_site_type_symbol
_atom_site_fract_x
_atom_site_fract_y
_atom_site_fract_z
_atom_site_U_iso_or_equiv
_atom_site_adp_type
_atom_site_occupancy
C1     C     0.99935   0.00065   0.25000   0.01267  Uiso   1.00
C2     C     0.00065   0.99935   0.75000   0.01267  Uiso   1.00
C3     C     0.33259   0.66742   0.25000   0.01267  Uiso   1.00
C4     C     0.66742   0.33258   0.75000   0.01267  Uiso   1.00
